initial_1.sdf
  PyMOL2.3          3D                             0

 28 31  0  0  0  0  0  0  0  0999 V2000
   -8.7377   18.4520   68.4023 C   0  0  0  0  0  0  0  0  0  0  0  0
   -9.2724   17.9100   69.4309 N   0  0  0  0  0  0  0  0  0  0  0  0
   -8.4247   17.2933   70.3528 N   0  0  0  0  0  0  0  0  0  0  0  0
   -7.0387   17.4024   70.3613 C   0  0  0  0  0  0  0  0  0  0  0  0
   -6.5573   17.9592   69.1808 N   0  0  0  0  0  0  0  0  0  0  0  0
   -7.2974   18.5117   68.1473 C   0  0  0  0  0  0  0  0  0  0  0  0
   -9.1007   16.6153   71.3969 C   0  0  0  0  0  0  0  0  0  0  0  0
   -5.0805   18.0087   69.0345 C   0  0  0  0  0  0  0  0  0  0  0  0
   -6.3238   17.0235   71.2964 O   0  0  0  0  0  0  0  0  0  0  0  0
   -6.8239   19.0181   67.1263 O   0  0  0  0  0  0  0  0  0  0  0  0
   -9.6399   19.0507   67.4414 C   0  0  0  0  0  0  0  0  0  0  0  0
  -10.3933   19.5270   66.7025 N   0  0  0  0  0  0  0  0  0  0  0  0
   -4.4679   19.2926   69.6308 C   0  0  0  0  0  0  0  0  0  0  0  0
   -2.9518   19.3030   69.5212 C   0  0  0  0  0  0  0  0  0  0  0  0
   -2.1749   18.6706   70.5029 C   0  0  0  0  0  0  0  0  0  0  0  0
   -0.7845   18.6801   70.3915 C   0  0  0  0  0  0  0  0  0  0  0  0
   -0.1866   19.3292   69.3276 C   0  0  0  0  0  0  0  0  0  0  0  0
   -0.9320   19.9752   68.3453 C   0  0  0  0  0  0  0  0  0  0  0  0
   -2.3258   19.9499   68.4446 C   0  0  0  0  0  0  0  0  0  0  0  0
  -10.1039   17.2694   72.1281 C   0  0  0  0  0  0  0  0  0  0  0  0
  -10.7682   16.6031   73.1542 C   0  0  0  0  0  0  0  0  0  0  0  0
  -10.4385   15.2826   73.4497 C   0  0  0  0  0  0  0  0  0  0  0  0
   -9.4500   14.6202   72.7258 C   0  0  0  0  0  0  0  0  0  0  0  0
   -8.7820   15.2827   71.7002 C   0  0  0  0  0  0  0  0  0  0  0  0
  -11.0837   14.6377   74.4474 F   0  0  0  0  0  0  0  0  0  0  0  0
    0.2969   18.1704   71.2873 C   0  0  0  0  0  0  0  0  0  0  0  0
    1.5553   18.4378   70.4486 C   0  0  0  0  0  0  0  0  0  0  0  0
    1.1832   19.3046   69.3748 O   0  0  0  0  0  0  0  0  0  0  0  0
  1  2  2  0  0  0  0
  1  6  1  0  0  0  0
  1 11  1  0  0  0  0
  2  3  1  0  0  0  0
  3  4  1  0  0  0  0
  3  7  1  0  0  0  0
  4  5  1  0  0  0  0
  4  9  2  0  0  0  0
  5  6  1  0  0  0  0
  5  8  1  0  0  0  0
  6 10  2  0  0  0  0
  7 20  2  0  0  0  0
  7 24  1  0  0  0  0
  8 13  1  0  0  0  0
 11 12  3  0  0  0  0
 13 14  1  0  0  0  0
 14 15  2  0  0  0  0
 14 19  1  0  0  0  0
 15 16  1  0  0  0  0
 16 17  2  0  0  0  0
 16 26  1  0  0  0  0
 17 18  1  0  0  0  0
 17 28  1  0  0  0  0
 18 19  2  0  0  0  0
 20 21  1  0  0  0  0
 21 22  2  0  0  0  0
 22 23  1  0  0  0  0
 22 25  1  0  0  0  0
 23 24  2  0  0  0  0
 26 27  1  0  0  0  0
 27 28  1  0  0  0  0
M  END
$$$$
